Version 4
SHEET 1 880 680
WIRE -64 0 -176 0
WIRE 48 0 16 0
WIRE 208 0 48 0
WIRE 48 64 48 0
WIRE 208 64 208 0
WIRE -176 96 -176 0
WIRE -176 224 -176 176
WIRE 48 224 48 144
WIRE 48 224 -176 224
WIRE 80 224 48 224
WIRE 208 224 208 160
WIRE 208 224 80 224
WIRE 80 256 80 224
FLAG 80 256 0
SYMBOL NTCS0805E3102_LT 208 112 R90
SYMATTR InstName U1
SYMBOL res 32 -16 R90
WINDOW 0 0 56 VBottom 2
WINDOW 3 32 56 VTop 2
SYMATTR InstName R1
SYMATTR Value 450
SYMBOL voltage -176 80 R0
WINDOW 123 0 0 Left 0
WINDOW 39 0 0 Left 0
SYMATTR InstName V1
SYMATTR Value 10
SYMBOL res 32 48 R0
SYMATTR InstName R2
SYMATTR Value 2000
TEXT -18 280 Left 2 !.dc TEMP -40 125 1
