Version 4
SHEET 1 3072 1764
WIRE -2032 -16 -2096 -16
WIRE -2032 0 -2032 -16
WIRE -1840 48 -1968 48
WIRE -1696 48 -1760 48
WIRE -2032 112 -2032 96
WIRE -2032 112 -2096 112
WIRE -2032 336 -2096 336
WIRE -2032 352 -2032 336
WIRE -1840 400 -1968 400
WIRE -1696 400 -1696 48
WIRE -1696 400 -1760 400
WIRE -1568 448 -1616 448
WIRE -1456 448 -1488 448
WIRE -1344 448 -1376 448
WIRE -2032 464 -2032 448
WIRE -2032 464 -2096 464
WIRE -1616 544 -1616 448
WIRE -1520 544 -1616 544
WIRE -1344 544 -1344 448
WIRE -1344 544 -1440 544
WIRE -2896 560 -2880 544
WIRE -2784 560 -2768 544
WIRE -2656 560 -2640 544
WIRE -2896 592 -2896 560
WIRE -2784 592 -2784 560
WIRE -2656 592 -2656 560
WIRE -1840 672 -2000 672
WIRE -1696 672 -1696 400
WIRE -1696 672 -1760 672
WIRE -1616 672 -1616 544
WIRE -1616 672 -1696 672
WIRE -1344 672 -1344 544
WIRE -1232 672 -1344 672
WIRE -2336 688 -2384 688
WIRE -2384 704 -2384 688
WIRE -1552 800 -1568 800
WIRE -1376 816 -1408 816
WIRE -1552 832 -1552 800
WIRE -1552 832 -1568 832
WIRE -1536 832 -1552 832
WIRE -1232 848 -1232 672
WIRE -1232 848 -1408 848
WIRE -1696 864 -1696 672
WIRE -1536 864 -1696 864
WIRE -1376 880 -1408 880
WIRE -1232 912 -1232 848
WIRE -1168 912 -1232 912
WIRE -1232 1024 -1232 912
WIRE -1232 1136 -1232 1104
FLAG -1376 880 Vneg
FLAG -1376 816 Vpos
FLAG -2000 672 Vpitch
IOPIN -2000 672 In
FLAG -1168 912 Vpitch_trim
IOPIN -1168 912 Out
FLAG -2096 464 Vneg
IOPIN -2096 464 In
FLAG -2096 112 Vneg
IOPIN -2096 112 In
FLAG -2096 -16 Vpos
IOPIN -2096 -16 In
FLAG -2096 336 Vpos
IOPIN -2096 336 In
FLAG -1568 800 GND
IOPIN -1568 800 In
FLAG -1232 1136 0
FLAG -1568 832 0
FLAG -2384 784 0
FLAG -2336 688 Vpitch
IOPIN -2336 688 Out
FLAG -2896 672 0
FLAG -2784 672 0
FLAG -2880 544 Vneg
FLAG -2768 544 Vpos
FLAG -2656 672 0
FLAG -2640 544 VCC
SYMBOL AutoGenerated\\LMX58_LM2904 -1472 848 R0
SYMATTR InstName U2
SYMBOL res -1744 656 R90
WINDOW 0 0 56 VBottom 2
WINDOW 3 32 56 VTop 2
SYMATTR InstName R2
SYMATTR Value 100k
SYMBOL res -1744 32 R90
WINDOW 0 0 56 VBottom 2
WINDOW 3 32 56 VTop 2
SYMATTR InstName R7
SYMATTR Value 100k
SYMBOL res -1744 384 R90
WINDOW 0 0 56 VBottom 2
WINDOW 3 32 56 VTop 2
SYMATTR InstName R8
SYMATTR Value 100k
SYMBOL res -1216 1120 R180
WINDOW 0 36 76 Left 2
WINDOW 3 36 40 Left 2
SYMATTR InstName R9
SYMATTR Value 10k
SYMBOL voltage -2384 688 R0
WINDOW 0 49 60 Left 2
WINDOW 3 49 88 Left 2
WINDOW 123 0 0 Left 0
WINDOW 39 0 0 Left 0
SYMATTR InstName V5
SYMATTR Value {vpitch_val}
SYMBOL voltage -2896 576 R0
WINDOW 123 0 0 Left 0
WINDOW 39 0 0 Left 0
SYMATTR InstName V6
SYMATTR Value -12V
SYMBOL voltage -2784 576 R0
WINDOW 123 0 0 Left 0
WINDOW 39 0 0 Left 0
SYMATTR InstName V7
SYMATTR Value 12V
SYMBOL voltage -2656 576 R0
WINDOW 123 0 0 Left 0
WINDOW 39 0 0 Left 0
SYMATTR InstName V8
SYMATTR Value 5V
SYMBOL pot -2048 336 R0
WINDOW 0 25 -22 Left 2
WINDOW 39 28 3 Left 2
SYMATTR InstName X1
SYMATTR SpiceLine R=100k val=50
SYMBOL pot -2048 -16 R0
WINDOW 0 25 -7 Left 2
WINDOW 39 25 21 Left 2
SYMATTR InstName X2
SYMATTR SpiceLine R=100k val=50
SYMBOL res -1472 432 R90
WINDOW 0 0 56 VBottom 2
WINDOW 3 32 56 VTop 2
SYMATTR InstName R12
SYMATTR Value 1100
SYMBOL res -1360 432 R90
WINDOW 0 0 56 VBottom 2
WINDOW 3 32 56 VTop 2
SYMATTR InstName R13
SYMATTR Value 8250
SYMBOL TFPT0805L2201 -1472 544 R0
SYMATTR SpiceLine TOL25=1 TOLslope=0
SYMATTR InstName U5
TEXT -1920 -648 Left 2 ;based on https://www.schmitzbits.de/expo_tutorial/
TEXT -1920 -688 Left 2 ;Linear to Exponential Converter
TEXT -2176 -56 Left 3 ;Coarse
TEXT -2168 304 Left 3 ;Fine
TEXT -2144 616 Left 3 ;Pitch 1V/oct
TEXT -1632 256 Left 2 ;Note: \nTo get 1V / octave. Gain should be 18mV/V \n(required by the transistor next stage)\n \nOpamp offset fixed by course and fine tune
TEXT -2392 840 Left 2 !.step param vpitch_val 0.5 5 0.5
TEXT -2392 872 Left 2 !.op
TEXT -1280 464 Left 2 ;Temperature compensation
TEXT -2392 944 Left 2 !.TEMP 10 25 45
