Version 4
SHEET 1 3072 1764
WIRE -368 -1216 -352 -1232
WIRE -256 -1216 -240 -1232
WIRE -112 -1216 -96 -1232
WIRE 80 -1200 96 -1216
WIRE -368 -1184 -368 -1216
WIRE -256 -1184 -256 -1216
WIRE -112 -1184 -112 -1216
WIRE 80 -1184 80 -1200
WIRE -368 -1072 -368 -1104
WIRE -256 -1072 -256 -1104
WIRE -112 -1072 -112 -1104
WIRE 80 -1072 80 -1104
WIRE 224 -896 192 -896
WIRE -160 -880 -208 -880
WIRE 64 -880 -80 -880
WIRE -416 -864 -400 -880
WIRE 224 -864 192 -864
WIRE -416 -848 -416 -864
WIRE 64 -848 16 -848
WIRE 432 -832 192 -832
WIRE 448 -832 432 -832
WIRE -192 -800 -352 -800
WIRE -96 -800 -192 -800
WIRE 16 -800 16 -848
WIRE 16 -800 -16 -800
WIRE 800 -784 768 -784
WIRE -192 -768 -192 -800
WIRE 640 -768 608 -768
WIRE 800 -752 768 -752
WIRE -416 -736 -416 -752
WIRE 432 -736 432 -832
WIRE 496 -736 432 -736
WIRE 592 -736 576 -736
WIRE 640 -736 592 -736
WIRE 864 -720 768 -720
WIRE 896 -720 864 -720
WIRE 1024 -720 976 -720
WIRE -192 -672 -192 -704
WIRE 592 -608 592 -736
WIRE 656 -608 592 -608
WIRE 864 -608 864 -720
WIRE 864 -608 736 -608
FLAG -368 -1072 0
FLAG -256 -1072 0
FLAG -352 -1232 Vneg
FLAG -240 -1232 Vpos
FLAG -208 -880 Vsaw_in
FLAG 448 -832 Vpulse
FLAG 80 -1072 0
FLAG 96 -1216 Vsaw_in
FLAG -112 -1072 0
FLAG -96 -1232 Vcc
FLAG 224 -864 Vneg
FLAG 224 -896 Vpos
FLAG -400 -880 Vpos
FLAG -416 -736 Vneg
FLAG 1024 -720 Vpulse_out
FLAG 800 -752 Vneg
FLAG 800 -784 Vpos
FLAG 608 -768 0
FLAG -192 -672 0
SYMBOL voltage -368 -1200 R0
WINDOW 123 0 0 Left 0
WINDOW 39 0 0 Left 0
SYMATTR InstName V6
SYMATTR Value -12V
SYMBOL voltage -256 -1200 R0
WINDOW 123 0 0 Left 0
WINDOW 39 0 0 Left 0
WINDOW 3 30 87 Left 2
SYMATTR Value 12V
SYMATTR InstName V7
SYMBOL TL07XH_TL08XH 128 -864 R0
SYMATTR InstName U1
SYMBOL voltage 80 -1200 R0
WINDOW 123 0 0 Left 0
WINDOW 39 0 0 Left 0
SYMATTR InstName V1
SYMATTR Value PULSE(-5 5 0 {period} 0 0 {period})
SYMBOL res -64 -896 R90
WINDOW 0 0 56 VBottom 2
WINDOW 3 32 56 VTop 2
SYMATTR InstName R2
SYMATTR Value 100k
SYMBOL voltage -112 -1200 R0
WINDOW 123 0 0 Left 0
WINDOW 39 0 0 Left 0
WINDOW 3 30 87 Left 2
SYMATTR Value 5V
SYMATTR InstName V2
SYMBOL pot -432 -864 R0
WINDOW 0 45 18 Left 2
WINDOW 39 45 46 Left 2
SYMATTR InstName X1
SYMATTR SpiceLine R=100k val=50
SYMBOL TL07XH_TL08XH 704 -752 R0
SYMATTR InstName U2
SYMBOL res 992 -736 R90
WINDOW 0 0 56 VBottom 2
WINDOW 3 32 56 VTop 2
SYMATTR InstName R1
SYMATTR Value 1k
SYMBOL res 752 -624 R90
WINDOW 0 0 56 VBottom 2
WINDOW 3 32 56 VTop 2
SYMATTR InstName R4
SYMATTR Value 1k
SYMBOL res 592 -752 R90
WINDOW 0 0 56 VBottom 2
WINDOW 3 32 56 VTop 2
SYMATTR InstName R5
SYMATTR Value 2.4k
SYMBOL res 0 -816 R90
WINDOW 0 0 56 VBottom 2
WINDOW 3 32 56 VTop 2
SYMATTR InstName R3
SYMATTR Value 1k
SYMBOL cap -208 -768 R0
SYMATTR InstName C1
SYMATTR Value 10n
TEXT -408 -1024 Left 2 !.tran 12ms
TEXT 112 -1040 Left 2 !.param period=1/110
TEXT -408 -944 Left 2 ;DC control
TEXT 760 -920 Left 2 ;Output range: -5V to 5V\nOutput: 0
